* NGSPICE file created from sky130_rom_krom.ext - technology: sky130A

.subckt sky130_rom_krom_rom_base_one_cell G D S gnd
X0 D G S gnd sky130_fd_pr__nfet_01v8 ad=0.108p pd=1.32u as=0.108p ps=1.32u w=0.36u l=0.15u
.ends

.subckt sky130_rom_krom_rom_base_zero_cell G S gnd
X0 S G S gnd sky130_fd_pr__nfet_01v8 ad=0.216p pd=2.64u as=0p ps=0u w=0.36u l=0.15u
.ends

.subckt sky130_rom_krom_precharge_cell D G vdd
X0 D G vdd vdd sky130_fd_pr__pfet_01v8 ad=0.126p pd=1.44u as=0.126p ps=1.44u w=0.42u l=0.15u
.ends

.subckt sky130_rom_krom_rom_precharge_array_0 pre_bl3_out pre_bl5_out pre_bl6_out
+ pre_bl10_out pre_bl13_out pre_bl17_out pre_bl19_out pre_bl21_out pre_bl22_out pre_bl26_out
+ pre_bl28_out pre_bl29_out pre_bl30_out pre_bl31_out vdd gate pre_bl15_out pre_bl24_out
+ pre_bl8_out pre_bl1_out pre_bl4_out pre_bl2_out pre_bl20_out pre_bl11_out pre_bl18_out
+ pre_bl27_out pre_bl16_out pre_bl9_out pre_bl25_out pre_bl14_out pre_bl7_out pre_bl23_out
+ pre_bl0_out pre_bl12_out
Xsky130_rom_krom_precharge_cell_2 pre_bl29_out gate vdd sky130_rom_krom_precharge_cell
Xsky130_rom_krom_precharge_cell_3 pre_bl28_out gate vdd sky130_rom_krom_precharge_cell
Xsky130_rom_krom_precharge_cell_4 pre_bl27_out gate vdd sky130_rom_krom_precharge_cell
Xsky130_rom_krom_precharge_cell_5 pre_bl26_out gate vdd sky130_rom_krom_precharge_cell
Xsky130_rom_krom_precharge_cell_6 pre_bl25_out gate vdd sky130_rom_krom_precharge_cell
Xsky130_rom_krom_precharge_cell_7 pre_bl24_out gate vdd sky130_rom_krom_precharge_cell
Xsky130_rom_krom_precharge_cell_8 pre_bl23_out gate vdd sky130_rom_krom_precharge_cell
Xsky130_rom_krom_precharge_cell_9 pre_bl22_out gate vdd sky130_rom_krom_precharge_cell
Xsky130_rom_krom_precharge_cell_30 pre_bl1_out gate vdd sky130_rom_krom_precharge_cell
Xsky130_rom_krom_precharge_cell_20 pre_bl11_out gate vdd sky130_rom_krom_precharge_cell
Xsky130_rom_krom_precharge_cell_31 pre_bl0_out gate vdd sky130_rom_krom_precharge_cell
Xsky130_rom_krom_precharge_cell_10 pre_bl21_out gate vdd sky130_rom_krom_precharge_cell
Xsky130_rom_krom_precharge_cell_11 pre_bl20_out gate vdd sky130_rom_krom_precharge_cell
Xsky130_rom_krom_precharge_cell_21 pre_bl10_out gate vdd sky130_rom_krom_precharge_cell
Xsky130_rom_krom_precharge_cell_22 pre_bl9_out gate vdd sky130_rom_krom_precharge_cell
Xsky130_rom_krom_precharge_cell_12 pre_bl19_out gate vdd sky130_rom_krom_precharge_cell
Xsky130_rom_krom_precharge_cell_23 pre_bl8_out gate vdd sky130_rom_krom_precharge_cell
Xsky130_rom_krom_precharge_cell_13 pre_bl18_out gate vdd sky130_rom_krom_precharge_cell
Xsky130_rom_krom_precharge_cell_24 pre_bl7_out gate vdd sky130_rom_krom_precharge_cell
Xsky130_rom_krom_precharge_cell_14 pre_bl17_out gate vdd sky130_rom_krom_precharge_cell
Xsky130_rom_krom_precharge_cell_25 pre_bl6_out gate vdd sky130_rom_krom_precharge_cell
Xsky130_rom_krom_precharge_cell_15 pre_bl16_out gate vdd sky130_rom_krom_precharge_cell
Xsky130_rom_krom_precharge_cell_26 pre_bl5_out gate vdd sky130_rom_krom_precharge_cell
Xsky130_rom_krom_precharge_cell_16 pre_bl15_out gate vdd sky130_rom_krom_precharge_cell
Xsky130_rom_krom_precharge_cell_27 pre_bl4_out gate vdd sky130_rom_krom_precharge_cell
Xsky130_rom_krom_precharge_cell_17 pre_bl14_out gate vdd sky130_rom_krom_precharge_cell
Xsky130_rom_krom_precharge_cell_28 pre_bl3_out gate vdd sky130_rom_krom_precharge_cell
Xsky130_rom_krom_precharge_cell_18 pre_bl13_out gate vdd sky130_rom_krom_precharge_cell
Xsky130_rom_krom_precharge_cell_29 pre_bl2_out gate vdd sky130_rom_krom_precharge_cell
Xsky130_rom_krom_precharge_cell_19 pre_bl12_out gate vdd sky130_rom_krom_precharge_cell
Xsky130_rom_krom_precharge_cell_0 pre_bl31_out gate vdd sky130_rom_krom_precharge_cell
Xsky130_rom_krom_precharge_cell_1 pre_bl30_out gate vdd sky130_rom_krom_precharge_cell
.ends

.subckt sky130_rom_krom_rom_row_decode_array bl_0_0 bl_0_1 bl_0_2 bl_0_3 bl_0_4 bl_0_5
+ bl_0_6 bl_0_7 bl_0_8 bl_0_9 bl_0_10 bl_0_11 bl_0_12 bl_0_13 bl_0_14 bl_0_15 bl_0_16
+ bl_0_17 bl_0_18 bl_0_19 bl_0_20 bl_0_21 bl_0_22 bl_0_23 bl_0_25 bl_0_26 bl_0_27
+ bl_0_28 bl_0_29 bl_0_30 bl_0_31 wl_0_1 wl_0_2 wl_0_3 wl_0_4 wl_0_5 wl_0_6 wl_0_7
+ wl_0_9 gnd precharge wl_0_0 vdd wl_0_8 bl_0_24
Xsky130_rom_krom_rom_base_one_cell_94 wl_0_6 sky130_rom_krom_rom_base_one_cell_94/D
+ sky130_rom_krom_rom_base_one_cell_94/S gnd sky130_rom_krom_rom_base_one_cell
Xsky130_rom_krom_rom_base_one_cell_72 wl_0_7 sky130_rom_krom_rom_base_one_cell_72/D
+ sky130_rom_krom_rom_base_one_cell_72/S gnd sky130_rom_krom_rom_base_one_cell
Xsky130_rom_krom_rom_base_one_cell_83 wl_0_6 sky130_rom_krom_rom_base_one_cell_83/D
+ sky130_rom_krom_rom_base_one_cell_83/S gnd sky130_rom_krom_rom_base_one_cell
Xsky130_rom_krom_rom_base_one_cell_61 wl_0_8 sky130_rom_krom_rom_base_one_cell_61/D
+ sky130_rom_krom_rom_base_one_cell_93/D gnd sky130_rom_krom_rom_base_one_cell
Xsky130_rom_krom_rom_base_one_cell_50 wl_0_8 sky130_rom_krom_rom_base_one_cell_5/S
+ sky130_rom_krom_rom_base_one_cell_67/D gnd sky130_rom_krom_rom_base_one_cell
Xsky130_rom_krom_rom_base_one_cell_95 wl_0_6 sky130_rom_krom_rom_base_one_cell_95/D
+ sky130_rom_krom_rom_base_one_cell_95/S gnd sky130_rom_krom_rom_base_one_cell
Xsky130_rom_krom_rom_base_one_cell_73 wl_0_7 sky130_rom_krom_rom_base_one_cell_73/D
+ sky130_rom_krom_rom_base_one_cell_73/S gnd sky130_rom_krom_rom_base_one_cell
Xsky130_rom_krom_rom_base_one_cell_84 wl_0_6 sky130_rom_krom_rom_base_one_cell_84/D
+ sky130_rom_krom_rom_base_one_cell_84/S gnd sky130_rom_krom_rom_base_one_cell
Xsky130_rom_krom_rom_base_one_cell_62 wl_0_8 sky130_rom_krom_rom_base_one_cell_62/D
+ sky130_rom_krom_rom_base_one_cell_79/D gnd sky130_rom_krom_rom_base_one_cell
Xsky130_rom_krom_rom_base_one_cell_51 wl_0_8 sky130_rom_krom_rom_base_one_cell_7/S
+ sky130_rom_krom_rom_base_one_cell_83/D gnd sky130_rom_krom_rom_base_one_cell
Xsky130_rom_krom_rom_base_one_cell_40 wl_0_9 sky130_rom_krom_rom_base_one_cell_40/D
+ sky130_rom_krom_rom_base_one_cell_72/D gnd sky130_rom_krom_rom_base_one_cell
Xsky130_rom_krom_rom_base_one_cell_96 wl_0_5 sky130_rom_krom_rom_base_one_cell_96/D
+ sky130_rom_krom_rom_base_one_cell_96/S gnd sky130_rom_krom_rom_base_one_cell
Xsky130_rom_krom_rom_base_one_cell_74 wl_0_7 sky130_rom_krom_rom_base_one_cell_74/D
+ sky130_rom_krom_rom_base_one_cell_74/S gnd sky130_rom_krom_rom_base_one_cell
Xsky130_rom_krom_rom_base_one_cell_85 wl_0_6 sky130_rom_krom_rom_base_one_cell_85/D
+ sky130_rom_krom_rom_base_one_cell_85/S gnd sky130_rom_krom_rom_base_one_cell
Xsky130_rom_krom_rom_base_one_cell_63 wl_0_8 sky130_rom_krom_rom_base_one_cell_63/D
+ sky130_rom_krom_rom_base_one_cell_95/D gnd sky130_rom_krom_rom_base_one_cell
Xsky130_rom_krom_rom_base_one_cell_52 wl_0_8 sky130_rom_krom_rom_base_one_cell_9/S
+ sky130_rom_krom_rom_base_one_cell_69/D gnd sky130_rom_krom_rom_base_one_cell
Xsky130_rom_krom_rom_base_one_cell_30 precharge gnd sky130_rom_krom_rom_base_one_cell_47/D
+ gnd sky130_rom_krom_rom_base_one_cell
Xsky130_rom_krom_rom_base_one_cell_41 wl_0_9 sky130_rom_krom_rom_base_one_cell_41/D
+ sky130_rom_krom_rom_base_one_cell_88/D gnd sky130_rom_krom_rom_base_one_cell
Xsky130_rom_krom_rom_base_one_cell_97 wl_0_5 sky130_rom_krom_rom_base_one_cell_97/D
+ sky130_rom_krom_rom_base_one_cell_97/S gnd sky130_rom_krom_rom_base_one_cell
Xsky130_rom_krom_rom_base_one_cell_75 wl_0_7 sky130_rom_krom_rom_base_one_cell_75/D
+ sky130_rom_krom_rom_base_one_cell_75/S gnd sky130_rom_krom_rom_base_one_cell
Xsky130_rom_krom_rom_base_one_cell_86 wl_0_6 sky130_rom_krom_rom_base_one_cell_86/D
+ sky130_rom_krom_rom_base_one_cell_86/S gnd sky130_rom_krom_rom_base_one_cell
Xsky130_rom_krom_rom_base_one_cell_64 wl_0_7 sky130_rom_krom_rom_base_one_cell_64/D
+ sky130_rom_krom_rom_base_one_cell_96/D gnd sky130_rom_krom_rom_base_one_cell
Xsky130_rom_krom_rom_base_one_cell_53 wl_0_8 sky130_rom_krom_rom_base_zero_cell_5/S
+ sky130_rom_krom_rom_base_one_cell_85/D gnd sky130_rom_krom_rom_base_one_cell
Xsky130_rom_krom_rom_base_one_cell_31 precharge gnd sky130_rom_krom_rom_base_one_cell_63/D
+ gnd sky130_rom_krom_rom_base_one_cell
Xsky130_rom_krom_rom_base_one_cell_20 precharge gnd sky130_rom_krom_rom_base_one_cell_42/D
+ gnd sky130_rom_krom_rom_base_one_cell
Xsky130_rom_krom_rom_base_one_cell_42 wl_0_9 sky130_rom_krom_rom_base_one_cell_42/D
+ sky130_rom_krom_rom_base_one_cell_74/D gnd sky130_rom_krom_rom_base_one_cell
Xsky130_rom_krom_rom_base_one_cell_32 wl_0_9 sky130_rom_krom_rom_base_one_cell_0/S
+ sky130_rom_krom_rom_base_one_cell_64/D gnd sky130_rom_krom_rom_base_one_cell
Xsky130_rom_krom_rom_base_one_cell_98 wl_0_5 sky130_rom_krom_rom_base_one_cell_98/D
+ sky130_rom_krom_rom_base_one_cell_98/S gnd sky130_rom_krom_rom_base_one_cell
Xsky130_rom_krom_rom_base_one_cell_76 wl_0_7 sky130_rom_krom_rom_base_one_cell_76/D
+ sky130_rom_krom_rom_base_one_cell_76/S gnd sky130_rom_krom_rom_base_one_cell
Xsky130_rom_krom_rom_base_one_cell_87 wl_0_6 sky130_rom_krom_rom_base_one_cell_87/D
+ sky130_rom_krom_rom_base_one_cell_87/S gnd sky130_rom_krom_rom_base_one_cell
Xsky130_rom_krom_rom_base_one_cell_65 wl_0_7 sky130_rom_krom_rom_base_one_cell_65/D
+ sky130_rom_krom_rom_base_one_cell_97/D gnd sky130_rom_krom_rom_base_one_cell
Xsky130_rom_krom_rom_base_one_cell_54 wl_0_8 sky130_rom_krom_rom_base_zero_cell_6/S
+ sky130_rom_krom_rom_base_one_cell_71/D gnd sky130_rom_krom_rom_base_one_cell
Xsky130_rom_krom_rom_base_one_cell_21 precharge gnd sky130_rom_krom_rom_base_one_cell_58/D
+ gnd sky130_rom_krom_rom_base_one_cell
Xsky130_rom_krom_rom_base_one_cell_43 wl_0_9 sky130_rom_krom_rom_base_one_cell_43/D
+ sky130_rom_krom_rom_base_one_cell_90/D gnd sky130_rom_krom_rom_base_one_cell
Xsky130_rom_krom_rom_base_one_cell_10 precharge gnd sky130_rom_krom_rom_base_one_cell_37/D
+ gnd sky130_rom_krom_rom_base_one_cell
Xsky130_rom_krom_rom_base_one_cell_190 wl_0_0 sky130_rom_krom_rom_base_one_cell_190/D
+ bl_0_1 gnd sky130_rom_krom_rom_base_one_cell
Xsky130_rom_krom_rom_base_one_cell_33 wl_0_9 sky130_rom_krom_rom_base_one_cell_2/S
+ sky130_rom_krom_rom_base_one_cell_80/D gnd sky130_rom_krom_rom_base_one_cell
Xsky130_rom_krom_rom_base_one_cell_99 wl_0_5 sky130_rom_krom_rom_base_one_cell_99/D
+ sky130_rom_krom_rom_base_one_cell_99/S gnd sky130_rom_krom_rom_base_one_cell
Xsky130_rom_krom_rom_base_one_cell_77 wl_0_7 sky130_rom_krom_rom_base_one_cell_77/D
+ sky130_rom_krom_rom_base_one_cell_77/S gnd sky130_rom_krom_rom_base_one_cell
Xsky130_rom_krom_rom_base_one_cell_88 wl_0_6 sky130_rom_krom_rom_base_one_cell_88/D
+ sky130_rom_krom_rom_base_one_cell_88/S gnd sky130_rom_krom_rom_base_one_cell
Xsky130_rom_krom_rom_base_one_cell_66 wl_0_7 sky130_rom_krom_rom_base_one_cell_66/D
+ sky130_rom_krom_rom_base_one_cell_66/S gnd sky130_rom_krom_rom_base_one_cell
Xsky130_rom_krom_rom_base_one_cell_55 wl_0_8 sky130_rom_krom_rom_base_zero_cell_7/S
+ sky130_rom_krom_rom_base_one_cell_87/D gnd sky130_rom_krom_rom_base_one_cell
Xsky130_rom_krom_rom_base_one_cell_44 wl_0_9 sky130_rom_krom_rom_base_one_cell_44/D
+ sky130_rom_krom_rom_base_one_cell_76/D gnd sky130_rom_krom_rom_base_one_cell
Xsky130_rom_krom_rom_base_one_cell_22 precharge gnd sky130_rom_krom_rom_base_one_cell_43/D
+ gnd sky130_rom_krom_rom_base_one_cell
Xsky130_rom_krom_rom_base_one_cell_11 precharge gnd sky130_rom_krom_rom_base_zero_cell_5/S
+ gnd sky130_rom_krom_rom_base_one_cell
Xsky130_rom_krom_rom_base_one_cell_180 wl_0_0 sky130_rom_krom_rom_base_one_cell_180/D
+ bl_0_11 gnd sky130_rom_krom_rom_base_one_cell
Xsky130_rom_krom_rom_base_one_cell_191 wl_0_0 sky130_rom_krom_rom_base_one_cell_191/D
+ bl_0_0 gnd sky130_rom_krom_rom_base_one_cell
Xsky130_rom_krom_rom_base_one_cell_34 wl_0_9 sky130_rom_krom_rom_base_one_cell_4/S
+ sky130_rom_krom_rom_base_one_cell_66/D gnd sky130_rom_krom_rom_base_one_cell
Xsky130_rom_krom_rom_base_one_cell_78 wl_0_7 sky130_rom_krom_rom_base_one_cell_78/D
+ sky130_rom_krom_rom_base_one_cell_78/S gnd sky130_rom_krom_rom_base_one_cell
Xsky130_rom_krom_rom_base_one_cell_89 wl_0_6 sky130_rom_krom_rom_base_one_cell_89/D
+ sky130_rom_krom_rom_base_one_cell_89/S gnd sky130_rom_krom_rom_base_one_cell
Xsky130_rom_krom_rom_base_one_cell_67 wl_0_7 sky130_rom_krom_rom_base_one_cell_67/D
+ sky130_rom_krom_rom_base_one_cell_67/S gnd sky130_rom_krom_rom_base_one_cell
Xsky130_rom_krom_rom_base_one_cell_56 wl_0_8 sky130_rom_krom_rom_base_zero_cell_8/S
+ sky130_rom_krom_rom_base_one_cell_73/D gnd sky130_rom_krom_rom_base_one_cell
Xsky130_rom_krom_rom_base_one_cell_45 wl_0_9 sky130_rom_krom_rom_base_one_cell_45/D
+ sky130_rom_krom_rom_base_one_cell_92/D gnd sky130_rom_krom_rom_base_one_cell
Xsky130_rom_krom_rom_base_one_cell_23 precharge gnd sky130_rom_krom_rom_base_one_cell_59/D
+ gnd sky130_rom_krom_rom_base_one_cell
Xsky130_rom_krom_rom_base_one_cell_12 precharge gnd sky130_rom_krom_rom_base_one_cell_38/D
+ gnd sky130_rom_krom_rom_base_one_cell
Xsky130_rom_krom_rom_base_one_cell_0 precharge gnd sky130_rom_krom_rom_base_one_cell_0/S
+ gnd sky130_rom_krom_rom_base_one_cell
Xsky130_rom_krom_rom_base_one_cell_170 wl_0_1 sky130_rom_krom_rom_base_one_cell_170/D
+ bl_0_21 gnd sky130_rom_krom_rom_base_one_cell
Xsky130_rom_krom_rom_base_one_cell_181 wl_0_0 sky130_rom_krom_rom_base_one_cell_181/D
+ bl_0_10 gnd sky130_rom_krom_rom_base_one_cell
Xsky130_rom_krom_rom_base_one_cell_13 precharge gnd sky130_rom_krom_rom_base_zero_cell_6/S
+ gnd sky130_rom_krom_rom_base_one_cell
Xsky130_rom_krom_rom_base_one_cell_35 wl_0_9 sky130_rom_krom_rom_base_one_cell_6/S
+ sky130_rom_krom_rom_base_one_cell_82/D gnd sky130_rom_krom_rom_base_one_cell
Xsky130_rom_krom_rom_base_one_cell_79 wl_0_7 sky130_rom_krom_rom_base_one_cell_79/D
+ sky130_rom_krom_rom_base_one_cell_79/S gnd sky130_rom_krom_rom_base_one_cell
Xsky130_rom_krom_rom_base_one_cell_68 wl_0_7 sky130_rom_krom_rom_base_one_cell_68/D
+ sky130_rom_krom_rom_base_one_cell_68/S gnd sky130_rom_krom_rom_base_one_cell
Xsky130_rom_krom_rom_base_one_cell_57 wl_0_8 sky130_rom_krom_rom_base_zero_cell_9/S
+ sky130_rom_krom_rom_base_one_cell_89/D gnd sky130_rom_krom_rom_base_one_cell
Xsky130_rom_krom_rom_base_one_cell_46 wl_0_9 sky130_rom_krom_rom_base_one_cell_46/D
+ sky130_rom_krom_rom_base_one_cell_78/D gnd sky130_rom_krom_rom_base_one_cell
Xsky130_rom_krom_rom_base_one_cell_24 precharge gnd sky130_rom_krom_rom_base_one_cell_44/D
+ gnd sky130_rom_krom_rom_base_one_cell
Xsky130_rom_krom_rom_base_one_cell_1 precharge gnd sky130_rom_krom_rom_base_one_cell_1/S
+ gnd sky130_rom_krom_rom_base_one_cell
Xsky130_rom_krom_rom_base_one_cell_160 wl_0_1 sky130_rom_krom_rom_base_one_cell_160/D
+ bl_0_31 gnd sky130_rom_krom_rom_base_one_cell
Xsky130_rom_krom_rom_base_one_cell_171 wl_0_1 sky130_rom_krom_rom_base_one_cell_171/D
+ bl_0_20 gnd sky130_rom_krom_rom_base_one_cell
Xsky130_rom_krom_rom_base_one_cell_182 wl_0_0 sky130_rom_krom_rom_base_one_cell_182/D
+ bl_0_9 gnd sky130_rom_krom_rom_base_one_cell
Xsky130_rom_krom_rom_base_zero_cell_0 wl_0_9 sky130_rom_krom_rom_base_one_cell_1/S
+ gnd sky130_rom_krom_rom_base_zero_cell
Xsky130_rom_krom_rom_base_one_cell_36 wl_0_9 sky130_rom_krom_rom_base_one_cell_8/S
+ sky130_rom_krom_rom_base_one_cell_68/D gnd sky130_rom_krom_rom_base_one_cell
Xsky130_rom_krom_rom_base_one_cell_69 wl_0_7 sky130_rom_krom_rom_base_one_cell_69/D
+ sky130_rom_krom_rom_base_one_cell_69/S gnd sky130_rom_krom_rom_base_one_cell
Xsky130_rom_krom_rom_base_one_cell_58 wl_0_8 sky130_rom_krom_rom_base_one_cell_58/D
+ sky130_rom_krom_rom_base_one_cell_75/D gnd sky130_rom_krom_rom_base_one_cell
Xsky130_rom_krom_rom_base_one_cell_47 wl_0_9 sky130_rom_krom_rom_base_one_cell_47/D
+ sky130_rom_krom_rom_base_one_cell_94/D gnd sky130_rom_krom_rom_base_one_cell
Xsky130_rom_krom_rom_base_one_cell_25 precharge gnd sky130_rom_krom_rom_base_one_cell_60/D
+ gnd sky130_rom_krom_rom_base_one_cell
Xsky130_rom_krom_rom_base_one_cell_14 precharge gnd sky130_rom_krom_rom_base_one_cell_39/D
+ gnd sky130_rom_krom_rom_base_one_cell
Xsky130_rom_krom_rom_base_one_cell_2 precharge gnd sky130_rom_krom_rom_base_one_cell_2/S
+ gnd sky130_rom_krom_rom_base_one_cell
Xsky130_rom_krom_rom_base_zero_cell_90 wl_0_4 sky130_rom_krom_rom_base_zero_cell_90/S
+ gnd sky130_rom_krom_rom_base_zero_cell
Xsky130_rom_krom_rom_base_one_cell_150 wl_0_2 sky130_rom_krom_rom_base_one_cell_150/D
+ sky130_rom_krom_rom_base_one_cell_174/D gnd sky130_rom_krom_rom_base_one_cell
Xsky130_rom_krom_rom_base_one_cell_161 wl_0_1 sky130_rom_krom_rom_base_one_cell_161/D
+ bl_0_30 gnd sky130_rom_krom_rom_base_one_cell
Xsky130_rom_krom_rom_base_one_cell_172 wl_0_1 sky130_rom_krom_rom_base_one_cell_172/D
+ bl_0_19 gnd sky130_rom_krom_rom_base_one_cell
Xsky130_rom_krom_rom_base_one_cell_183 wl_0_0 sky130_rom_krom_rom_base_one_cell_183/D
+ bl_0_8 gnd sky130_rom_krom_rom_base_one_cell
Xsky130_rom_krom_rom_base_zero_cell_1 wl_0_9 sky130_rom_krom_rom_base_one_cell_3/S
+ gnd sky130_rom_krom_rom_base_zero_cell
Xsky130_rom_krom_rom_precharge_array_0_0 bl_0_3 bl_0_5 bl_0_6 bl_0_10 bl_0_13 bl_0_17
+ bl_0_19 bl_0_21 bl_0_22 bl_0_26 bl_0_28 bl_0_29 bl_0_30 bl_0_31 vdd precharge bl_0_15
+ bl_0_24 bl_0_8 bl_0_1 bl_0_4 bl_0_2 bl_0_20 bl_0_11 bl_0_18 bl_0_27 bl_0_16 bl_0_9
+ bl_0_25 bl_0_14 bl_0_7 bl_0_23 bl_0_0 bl_0_12 sky130_rom_krom_rom_precharge_array_0
Xsky130_rom_krom_rom_base_one_cell_59 wl_0_8 sky130_rom_krom_rom_base_one_cell_59/D
+ sky130_rom_krom_rom_base_one_cell_91/D gnd sky130_rom_krom_rom_base_one_cell
Xsky130_rom_krom_rom_base_one_cell_48 wl_0_8 sky130_rom_krom_rom_base_one_cell_1/S
+ sky130_rom_krom_rom_base_one_cell_65/D gnd sky130_rom_krom_rom_base_one_cell
Xsky130_rom_krom_rom_base_one_cell_26 precharge gnd sky130_rom_krom_rom_base_one_cell_45/D
+ gnd sky130_rom_krom_rom_base_one_cell
Xsky130_rom_krom_rom_base_one_cell_15 precharge gnd sky130_rom_krom_rom_base_zero_cell_7/S
+ gnd sky130_rom_krom_rom_base_one_cell
Xsky130_rom_krom_rom_base_one_cell_37 wl_0_9 sky130_rom_krom_rom_base_one_cell_37/D
+ sky130_rom_krom_rom_base_one_cell_84/D gnd sky130_rom_krom_rom_base_one_cell
Xsky130_rom_krom_rom_base_zero_cell_91 wl_0_4 sky130_rom_krom_rom_base_zero_cell_91/S
+ gnd sky130_rom_krom_rom_base_zero_cell
Xsky130_rom_krom_rom_base_zero_cell_80 wl_0_4 sky130_rom_krom_rom_base_one_cell_96/S
+ gnd sky130_rom_krom_rom_base_zero_cell
Xsky130_rom_krom_rom_base_one_cell_3 precharge gnd sky130_rom_krom_rom_base_one_cell_3/S
+ gnd sky130_rom_krom_rom_base_one_cell
Xsky130_rom_krom_rom_base_one_cell_151 wl_0_2 sky130_rom_krom_rom_base_one_cell_151/D
+ sky130_rom_krom_rom_base_one_cell_175/D gnd sky130_rom_krom_rom_base_one_cell
Xsky130_rom_krom_rom_base_one_cell_162 wl_0_1 sky130_rom_krom_rom_base_one_cell_162/D
+ bl_0_29 gnd sky130_rom_krom_rom_base_one_cell
Xsky130_rom_krom_rom_base_one_cell_173 wl_0_1 sky130_rom_krom_rom_base_one_cell_173/D
+ bl_0_18 gnd sky130_rom_krom_rom_base_one_cell
Xsky130_rom_krom_rom_base_one_cell_184 wl_0_0 sky130_rom_krom_rom_base_one_cell_184/D
+ bl_0_7 gnd sky130_rom_krom_rom_base_one_cell
Xsky130_rom_krom_rom_base_one_cell_140 wl_0_3 sky130_rom_krom_rom_base_one_cell_140/D
+ sky130_rom_krom_rom_base_one_cell_180/D gnd sky130_rom_krom_rom_base_one_cell
Xsky130_rom_krom_rom_base_zero_cell_2 wl_0_9 sky130_rom_krom_rom_base_one_cell_5/S
+ gnd sky130_rom_krom_rom_base_zero_cell
Xsky130_rom_krom_rom_base_one_cell_49 wl_0_8 sky130_rom_krom_rom_base_one_cell_3/S
+ sky130_rom_krom_rom_base_one_cell_81/D gnd sky130_rom_krom_rom_base_one_cell
Xsky130_rom_krom_rom_base_one_cell_27 precharge gnd sky130_rom_krom_rom_base_one_cell_61/D
+ gnd sky130_rom_krom_rom_base_one_cell
Xsky130_rom_krom_rom_base_one_cell_16 precharge gnd sky130_rom_krom_rom_base_one_cell_40/D
+ gnd sky130_rom_krom_rom_base_one_cell
Xsky130_rom_krom_rom_base_one_cell_38 wl_0_9 sky130_rom_krom_rom_base_one_cell_38/D
+ sky130_rom_krom_rom_base_one_cell_70/D gnd sky130_rom_krom_rom_base_one_cell
Xsky130_rom_krom_rom_base_zero_cell_92 wl_0_4 sky130_rom_krom_rom_base_zero_cell_92/S
+ gnd sky130_rom_krom_rom_base_zero_cell
Xsky130_rom_krom_rom_base_zero_cell_81 wl_0_4 sky130_rom_krom_rom_base_one_cell_97/S
+ gnd sky130_rom_krom_rom_base_zero_cell
Xsky130_rom_krom_rom_base_zero_cell_70 wl_0_5 sky130_rom_krom_rom_base_one_cell_86/S
+ gnd sky130_rom_krom_rom_base_zero_cell
Xsky130_rom_krom_rom_base_one_cell_4 precharge gnd sky130_rom_krom_rom_base_one_cell_4/S
+ gnd sky130_rom_krom_rom_base_one_cell
Xsky130_rom_krom_rom_base_one_cell_152 wl_0_2 sky130_rom_krom_rom_base_zero_cell_92/S
+ sky130_rom_krom_rom_base_one_cell_184/D gnd sky130_rom_krom_rom_base_one_cell
Xsky130_rom_krom_rom_base_one_cell_163 wl_0_1 sky130_rom_krom_rom_base_one_cell_163/D
+ bl_0_28 gnd sky130_rom_krom_rom_base_one_cell
Xsky130_rom_krom_rom_base_one_cell_174 wl_0_1 sky130_rom_krom_rom_base_one_cell_174/D
+ bl_0_17 gnd sky130_rom_krom_rom_base_one_cell
Xsky130_rom_krom_rom_base_one_cell_185 wl_0_0 sky130_rom_krom_rom_base_one_cell_185/D
+ bl_0_6 gnd sky130_rom_krom_rom_base_one_cell
Xsky130_rom_krom_rom_base_one_cell_141 wl_0_3 sky130_rom_krom_rom_base_one_cell_141/D
+ sky130_rom_krom_rom_base_one_cell_181/D gnd sky130_rom_krom_rom_base_one_cell
Xsky130_rom_krom_rom_base_one_cell_130 wl_0_3 sky130_rom_krom_rom_base_one_cell_98/S
+ sky130_rom_krom_rom_base_one_cell_162/D gnd sky130_rom_krom_rom_base_one_cell
Xsky130_rom_krom_rom_base_zero_cell_3 wl_0_9 sky130_rom_krom_rom_base_one_cell_7/S
+ gnd sky130_rom_krom_rom_base_zero_cell
Xsky130_rom_krom_rom_base_one_cell_28 precharge gnd sky130_rom_krom_rom_base_one_cell_46/D
+ gnd sky130_rom_krom_rom_base_one_cell
Xsky130_rom_krom_rom_base_one_cell_17 precharge gnd sky130_rom_krom_rom_base_zero_cell_8/S
+ gnd sky130_rom_krom_rom_base_one_cell
Xsky130_rom_krom_rom_base_one_cell_39 wl_0_9 sky130_rom_krom_rom_base_one_cell_39/D
+ sky130_rom_krom_rom_base_one_cell_86/D gnd sky130_rom_krom_rom_base_one_cell
Xsky130_rom_krom_rom_base_zero_cell_93 wl_0_4 sky130_rom_krom_rom_base_zero_cell_93/S
+ gnd sky130_rom_krom_rom_base_zero_cell
Xsky130_rom_krom_rom_base_zero_cell_82 wl_0_4 sky130_rom_krom_rom_base_one_cell_98/S
+ gnd sky130_rom_krom_rom_base_zero_cell
Xsky130_rom_krom_rom_base_zero_cell_71 wl_0_5 sky130_rom_krom_rom_base_one_cell_87/S
+ gnd sky130_rom_krom_rom_base_zero_cell
Xsky130_rom_krom_rom_base_zero_cell_60 wl_0_6 sky130_rom_krom_rom_base_one_cell_76/S
+ gnd sky130_rom_krom_rom_base_zero_cell
Xsky130_rom_krom_rom_base_one_cell_5 precharge gnd sky130_rom_krom_rom_base_one_cell_5/S
+ gnd sky130_rom_krom_rom_base_one_cell
Xsky130_rom_krom_rom_base_one_cell_153 wl_0_2 sky130_rom_krom_rom_base_zero_cell_93/S
+ sky130_rom_krom_rom_base_one_cell_185/D gnd sky130_rom_krom_rom_base_one_cell
Xsky130_rom_krom_rom_base_one_cell_164 wl_0_1 sky130_rom_krom_rom_base_one_cell_164/D
+ bl_0_27 gnd sky130_rom_krom_rom_base_one_cell
Xsky130_rom_krom_rom_base_one_cell_175 wl_0_1 sky130_rom_krom_rom_base_one_cell_175/D
+ bl_0_16 gnd sky130_rom_krom_rom_base_one_cell
Xsky130_rom_krom_rom_base_one_cell_186 wl_0_0 sky130_rom_krom_rom_base_one_cell_186/D
+ bl_0_5 gnd sky130_rom_krom_rom_base_one_cell
Xsky130_rom_krom_rom_base_one_cell_142 wl_0_3 sky130_rom_krom_rom_base_one_cell_142/D
+ sky130_rom_krom_rom_base_one_cell_182/D gnd sky130_rom_krom_rom_base_one_cell
Xsky130_rom_krom_rom_base_one_cell_120 wl_0_4 sky130_rom_krom_rom_base_one_cell_74/S
+ sky130_rom_krom_rom_base_one_cell_140/D gnd sky130_rom_krom_rom_base_one_cell
Xsky130_rom_krom_rom_base_one_cell_131 wl_0_3 sky130_rom_krom_rom_base_one_cell_99/S
+ sky130_rom_krom_rom_base_one_cell_163/D gnd sky130_rom_krom_rom_base_one_cell
Xsky130_rom_krom_rom_base_zero_cell_4 wl_0_9 sky130_rom_krom_rom_base_one_cell_9/S
+ gnd sky130_rom_krom_rom_base_zero_cell
Xsky130_rom_krom_rom_base_one_cell_29 precharge gnd sky130_rom_krom_rom_base_one_cell_62/D
+ gnd sky130_rom_krom_rom_base_one_cell
Xsky130_rom_krom_rom_base_one_cell_18 precharge gnd sky130_rom_krom_rom_base_one_cell_41/D
+ gnd sky130_rom_krom_rom_base_one_cell
Xsky130_rom_krom_rom_base_zero_cell_72 wl_0_5 sky130_rom_krom_rom_base_one_cell_74/S
+ gnd sky130_rom_krom_rom_base_zero_cell
Xsky130_rom_krom_rom_base_zero_cell_61 wl_0_6 sky130_rom_krom_rom_base_one_cell_77/S
+ gnd sky130_rom_krom_rom_base_zero_cell
Xsky130_rom_krom_rom_base_zero_cell_50 wl_0_6 sky130_rom_krom_rom_base_one_cell_66/S
+ gnd sky130_rom_krom_rom_base_zero_cell
Xsky130_rom_krom_rom_base_one_cell_6 precharge gnd sky130_rom_krom_rom_base_one_cell_6/S
+ gnd sky130_rom_krom_rom_base_one_cell
Xsky130_rom_krom_rom_base_zero_cell_94 wl_0_4 sky130_rom_krom_rom_base_zero_cell_94/S
+ gnd sky130_rom_krom_rom_base_zero_cell
Xsky130_rom_krom_rom_base_zero_cell_83 wl_0_4 sky130_rom_krom_rom_base_one_cell_99/S
+ gnd sky130_rom_krom_rom_base_zero_cell
Xsky130_rom_krom_rom_base_one_cell_154 wl_0_2 sky130_rom_krom_rom_base_zero_cell_94/S
+ sky130_rom_krom_rom_base_one_cell_186/D gnd sky130_rom_krom_rom_base_one_cell
Xsky130_rom_krom_rom_base_one_cell_165 wl_0_1 sky130_rom_krom_rom_base_one_cell_165/D
+ bl_0_26 gnd sky130_rom_krom_rom_base_one_cell
Xsky130_rom_krom_rom_base_one_cell_176 wl_0_0 sky130_rom_krom_rom_base_one_cell_176/D
+ bl_0_15 gnd sky130_rom_krom_rom_base_one_cell
Xsky130_rom_krom_rom_base_one_cell_187 wl_0_0 sky130_rom_krom_rom_base_one_cell_187/D
+ bl_0_4 gnd sky130_rom_krom_rom_base_one_cell
Xsky130_rom_krom_rom_base_one_cell_143 wl_0_3 sky130_rom_krom_rom_base_one_cell_143/D
+ sky130_rom_krom_rom_base_one_cell_183/D gnd sky130_rom_krom_rom_base_one_cell
Xsky130_rom_krom_rom_base_one_cell_121 wl_0_4 sky130_rom_krom_rom_base_one_cell_75/S
+ sky130_rom_krom_rom_base_one_cell_141/D gnd sky130_rom_krom_rom_base_one_cell
Xsky130_rom_krom_rom_base_one_cell_132 wl_0_3 sky130_rom_krom_rom_base_one_cell_132/D
+ sky130_rom_krom_rom_base_one_cell_164/D gnd sky130_rom_krom_rom_base_one_cell
Xsky130_rom_krom_rom_base_one_cell_110 wl_0_5 sky130_rom_krom_rom_base_one_cell_92/S
+ sky130_rom_krom_rom_base_zero_cell_94/S gnd sky130_rom_krom_rom_base_one_cell
Xsky130_rom_krom_rom_base_zero_cell_5 wl_0_9 sky130_rom_krom_rom_base_zero_cell_5/S
+ gnd sky130_rom_krom_rom_base_zero_cell
Xsky130_rom_krom_rom_base_one_cell_19 precharge gnd sky130_rom_krom_rom_base_zero_cell_9/S
+ gnd sky130_rom_krom_rom_base_one_cell
Xsky130_rom_krom_rom_base_one_cell_7 precharge gnd sky130_rom_krom_rom_base_one_cell_7/S
+ gnd sky130_rom_krom_rom_base_one_cell
Xsky130_rom_krom_rom_base_zero_cell_95 wl_0_4 sky130_rom_krom_rom_base_zero_cell_95/S
+ gnd sky130_rom_krom_rom_base_zero_cell
Xsky130_rom_krom_rom_base_zero_cell_84 wl_0_4 sky130_rom_krom_rom_base_zero_cell_96/S
+ gnd sky130_rom_krom_rom_base_zero_cell
Xsky130_rom_krom_rom_base_zero_cell_73 wl_0_5 sky130_rom_krom_rom_base_one_cell_75/S
+ gnd sky130_rom_krom_rom_base_zero_cell
Xsky130_rom_krom_rom_base_zero_cell_62 wl_0_6 sky130_rom_krom_rom_base_one_cell_78/S
+ gnd sky130_rom_krom_rom_base_zero_cell
Xsky130_rom_krom_rom_base_zero_cell_40 wl_0_7 sky130_rom_krom_rom_base_one_cell_88/D
+ gnd sky130_rom_krom_rom_base_zero_cell
Xsky130_rom_krom_rom_base_zero_cell_51 wl_0_6 sky130_rom_krom_rom_base_one_cell_67/S
+ gnd sky130_rom_krom_rom_base_zero_cell
Xsky130_rom_krom_rom_base_one_cell_155 wl_0_2 sky130_rom_krom_rom_base_zero_cell_95/S
+ sky130_rom_krom_rom_base_one_cell_187/D gnd sky130_rom_krom_rom_base_one_cell
Xsky130_rom_krom_rom_base_one_cell_166 wl_0_1 sky130_rom_krom_rom_base_one_cell_166/D
+ bl_0_25 gnd sky130_rom_krom_rom_base_one_cell
Xsky130_rom_krom_rom_base_one_cell_177 wl_0_0 sky130_rom_krom_rom_base_one_cell_177/D
+ bl_0_14 gnd sky130_rom_krom_rom_base_one_cell
Xsky130_rom_krom_rom_base_one_cell_188 wl_0_0 sky130_rom_krom_rom_base_one_cell_188/D
+ bl_0_3 gnd sky130_rom_krom_rom_base_one_cell
Xsky130_rom_krom_rom_base_one_cell_144 wl_0_2 sky130_rom_krom_rom_base_zero_cell_96/S
+ sky130_rom_krom_rom_base_one_cell_168/D gnd sky130_rom_krom_rom_base_one_cell
Xsky130_rom_krom_rom_base_one_cell_122 wl_0_4 sky130_rom_krom_rom_base_one_cell_90/S
+ sky130_rom_krom_rom_base_one_cell_142/D gnd sky130_rom_krom_rom_base_one_cell
Xsky130_rom_krom_rom_base_one_cell_133 wl_0_3 sky130_rom_krom_rom_base_one_cell_133/D
+ sky130_rom_krom_rom_base_one_cell_165/D gnd sky130_rom_krom_rom_base_one_cell
Xsky130_rom_krom_rom_base_one_cell_111 wl_0_5 sky130_rom_krom_rom_base_one_cell_93/S
+ sky130_rom_krom_rom_base_zero_cell_95/S gnd sky130_rom_krom_rom_base_one_cell
Xsky130_rom_krom_rom_base_one_cell_100 wl_0_5 sky130_rom_krom_rom_base_one_cell_68/S
+ sky130_rom_krom_rom_base_zero_cell_96/S gnd sky130_rom_krom_rom_base_one_cell
Xsky130_rom_krom_rom_base_zero_cell_6 wl_0_9 sky130_rom_krom_rom_base_zero_cell_6/S
+ gnd sky130_rom_krom_rom_base_zero_cell
Xsky130_rom_krom_rom_base_zero_cell_85 wl_0_4 sky130_rom_krom_rom_base_zero_cell_97/S
+ gnd sky130_rom_krom_rom_base_zero_cell
Xsky130_rom_krom_rom_base_zero_cell_96 wl_0_3 sky130_rom_krom_rom_base_zero_cell_96/S
+ gnd sky130_rom_krom_rom_base_zero_cell
Xsky130_rom_krom_rom_base_zero_cell_74 wl_0_5 sky130_rom_krom_rom_base_one_cell_90/S
+ gnd sky130_rom_krom_rom_base_zero_cell
Xsky130_rom_krom_rom_base_zero_cell_63 wl_0_6 sky130_rom_krom_rom_base_one_cell_79/S
+ gnd sky130_rom_krom_rom_base_zero_cell
Xsky130_rom_krom_rom_base_zero_cell_41 wl_0_7 sky130_rom_krom_rom_base_one_cell_89/D
+ gnd sky130_rom_krom_rom_base_zero_cell
Xsky130_rom_krom_rom_base_zero_cell_52 wl_0_6 sky130_rom_krom_rom_base_one_cell_68/S
+ gnd sky130_rom_krom_rom_base_zero_cell
Xsky130_rom_krom_rom_base_zero_cell_30 wl_0_8 sky130_rom_krom_rom_base_one_cell_78/D
+ gnd sky130_rom_krom_rom_base_zero_cell
Xsky130_rom_krom_rom_base_one_cell_8 precharge gnd sky130_rom_krom_rom_base_one_cell_8/S
+ gnd sky130_rom_krom_rom_base_one_cell
Xsky130_rom_krom_rom_base_one_cell_123 wl_0_4 sky130_rom_krom_rom_base_one_cell_91/S
+ sky130_rom_krom_rom_base_one_cell_143/D gnd sky130_rom_krom_rom_base_one_cell
Xsky130_rom_krom_rom_base_one_cell_134 wl_0_3 sky130_rom_krom_rom_base_one_cell_134/D
+ sky130_rom_krom_rom_base_one_cell_166/D gnd sky130_rom_krom_rom_base_one_cell
Xsky130_rom_krom_rom_base_one_cell_112 wl_0_4 sky130_rom_krom_rom_base_one_cell_66/S
+ sky130_rom_krom_rom_base_one_cell_132/D gnd sky130_rom_krom_rom_base_one_cell
Xsky130_rom_krom_rom_base_one_cell_101 wl_0_5 sky130_rom_krom_rom_base_one_cell_69/S