* NGSPICE file created from sky130_rom_krom.ext - technology: sky130A

.subckt sky130_rom_krom_rom_base_one_cell G D S gnd
X0 D G S gnd sky130_fd_pr__nfet_01v8 ad=0.108p pd=1.32u as=0.108p ps=1.32u w=0.36u l=0.15u
.ends

.subckt sky130_rom_krom_rom_base_zero_cell G S gnd
X0 S G S gnd sky130_fd_pr__nfet_01v8 ad=0.216p pd=2.64u as=0p ps=0u w=0.36u l=0.15u
.ends

.subckt sky130_rom_krom_precharge_cell D G vdd
X0 D G vdd vdd sky130_fd_pr__pfet_01v8 ad=0.126p pd=1.44u as=0.126p ps=1.44u w=0.42u l=0.15u
.ends

.subckt sky130_rom_krom_rom_precharge_array_0 pre_bl0_out pre_bl2_out pre_bl3_out
+ pre_bl6_out pre_bl4_out vdd pre_bl7_out gate pre_bl5_out pre_bl1_out
Xsky130_rom_krom_precharge_cell_2 pre_bl5_out gate vdd sky130_rom_krom_precharge_cell
Xsky130_rom_krom_precharge_cell_3 pre_bl4_out gate vdd sky130_rom_krom_precharge_cell
Xsky130_rom_krom_precharge_cell_4 pre_bl3_out gate vdd sky130_rom_krom_precharge_cell
Xsky130_rom_krom_precharge_cell_5 pre_bl2_out gate vdd sky130_rom_krom_precharge_cell
Xsky130_rom_krom_precharge_cell_6 pre_bl1_out gate vdd sky130_rom_krom_precharge_cell
Xsky130_rom_krom_precharge_cell_7 pre_bl0_out gate vdd sky130_rom_krom_precharge_cell
Xsky130_rom_krom_precharge_cell_0 pre_bl7_out gate vdd sky130_rom_krom_precharge_cell
Xsky130_rom_krom_precharge_cell_1 pre_bl6_out gate vdd sky130_rom_krom_precharge_cell
.ends

.subckt sky130_rom_krom_rom_row_decode_array bl_0_0 bl_0_1 bl_0_2 bl_0_3 bl_0_4 bl_0_5
+ bl_0_6 bl_0_7 wl_0_1 wl_0_2 wl_0_3 wl_0_4 wl_0_5 gnd wl_0_0 vdd precharge
Xsky130_rom_krom_rom_base_one_cell_30 wl_0_0 sky130_rom_krom_rom_base_one_cell_30/D
+ bl_0_1 gnd sky130_rom_krom_rom_base_one_cell
Xsky130_rom_krom_rom_base_one_cell_20 wl_0_2 sky130_rom_krom_rom_base_one_cell_9/S
+ sky130_rom_krom_rom_base_one_cell_26/D gnd sky130_rom_krom_rom_base_one_cell
Xsky130_rom_krom_rom_base_one_cell_31 wl_0_0 sky130_rom_krom_rom_base_one_cell_31/D
+ bl_0_0 gnd sky130_rom_krom_rom_base_one_cell
Xsky130_rom_krom_rom_base_one_cell_10 wl_0_5 sky130_rom_krom_rom_base_one_cell_4/S
+ sky130_rom_krom_rom_base_zero_cell_6/S gnd sky130_rom_krom_rom_base_one_cell
Xsky130_rom_krom_rom_base_one_cell_21 wl_0_2 sky130_rom_krom_rom_base_zero_cell_9/S
+ sky130_rom_krom_rom_base_one_cell_27/D gnd sky130_rom_krom_rom_base_one_cell
Xsky130_rom_krom_rom_base_one_cell_11 wl_0_5 sky130_rom_krom_rom_base_one_cell_6/S
+ sky130_rom_krom_rom_base_zero_cell_7/S gnd sky130_rom_krom_rom_base_one_cell
Xsky130_rom_krom_rom_base_one_cell_22 wl_0_2 sky130_rom_krom_rom_base_zero_cell_7/S
+ sky130_rom_krom_rom_base_one_cell_30/D gnd sky130_rom_krom_rom_base_one_cell
Xsky130_rom_krom_rom_base_one_cell_0 precharge gnd sky130_rom_krom_rom_base_one_cell_8/D
+ gnd sky130_rom_krom_rom_base_one_cell
Xsky130_rom_krom_rom_base_one_cell_12 wl_0_4 sky130_rom_krom_rom_base_one_cell_1/S
+ sky130_rom_krom_rom_base_one_cell_17/D gnd sky130_rom_krom_rom_base_one_cell
Xsky130_rom_krom_rom_base_one_cell_23 wl_0_2 sky130_rom_krom_rom_base_one_cell_23/D
+ sky130_rom_krom_rom_base_one_cell_31/D gnd sky130_rom_krom_rom_base_one_cell
Xsky130_rom_krom_rom_base_one_cell_1 precharge gnd sky130_rom_krom_rom_base_one_cell_1/S
+ gnd sky130_rom_krom_rom_base_one_cell
Xsky130_rom_krom_rom_base_one_cell_13 wl_0_4 sky130_rom_krom_rom_base_one_cell_3/S
+ sky130_rom_krom_rom_base_zero_cell_9/S gnd sky130_rom_krom_rom_base_one_cell
Xsky130_rom_krom_rom_base_one_cell_24 wl_0_1 sky130_rom_krom_rom_base_one_cell_24/D
+ bl_0_7 gnd sky130_rom_krom_rom_base_one_cell
Xsky130_rom_krom_rom_base_one_cell_2 precharge gnd sky130_rom_krom_rom_base_one_cell_9/D
+ gnd sky130_rom_krom_rom_base_one_cell
Xsky130_rom_krom_rom_base_zero_cell_0 wl_0_5 sky130_rom_krom_rom_base_one_cell_1/S
+ gnd sky130_rom_krom_rom_base_zero_cell
Xsky130_rom_krom_rom_base_one_cell_14 wl_0_4 sky130_rom_krom_rom_base_one_cell_5/S
+ sky130_rom_krom_rom_base_one_cell_19/D gnd sky130_rom_krom_rom_base_one_cell
Xsky130_rom_krom_rom_base_one_cell_25 wl_0_1 sky130_rom_krom_rom_base_one_cell_25/D
+ bl_0_6 gnd sky130_rom_krom_rom_base_one_cell
Xsky130_rom_krom_rom_base_one_cell_3 precharge gnd sky130_rom_krom_rom_base_one_cell_3/S
+ gnd sky130_rom_krom_rom_base_one_cell
Xsky130_rom_krom_rom_base_zero_cell_1 wl_0_5 sky130_rom_krom_rom_base_one_cell_3/S
+ gnd sky130_rom_krom_rom_base_zero_cell
Xsky130_rom_krom_rom_base_zero_cell_2 wl_0_5 sky130_rom_krom_rom_base_one_cell_5/S
+ gnd sky130_rom_krom_rom_base_zero_cell
Xsky130_rom_krom_rom_base_one_cell_15 wl_0_4 sky130_rom_krom_rom_base_one_cell_7/S
+ sky130_rom_krom_rom_base_one_cell_23/D gnd sky130_rom_krom_rom_base_one_cell
Xsky130_rom_krom_rom_base_one_cell_26 wl_0_1 sky130_rom_krom_rom_base_one_cell_26/D
+ bl_0_5 gnd sky130_rom_krom_rom_base_one_cell
Xsky130_rom_krom_rom_precharge_array_0_0 bl_0_0 bl_0_2 bl_0_3 bl_0_6 bl_0_4 vdd bl_0_7
+ precharge bl_0_5 bl_0_1 sky130_rom_krom_rom_precharge_array_0
Xsky130_rom_krom_rom_base_one_cell_4 precharge gnd sky130_rom_krom_rom_base_one_cell_4/S
+ gnd sky130_rom_krom_rom_base_one_cell
Xsky130_rom_krom_rom_base_zero_cell_3 wl_0_5 sky130_rom_krom_rom_base_one_cell_7/S
+ gnd sky130_rom_krom_rom_base_zero_cell
Xsky130_rom_krom_rom_base_one_cell_16 wl_0_3 sky130_rom_krom_rom_base_one_cell_8/S
+ sky130_rom_krom_rom_base_one_cell_24/D gnd sky130_rom_krom_rom_base_one_cell
Xsky130_rom_krom_rom_base_one_cell_17 wl_0_3 sky130_rom_krom_rom_base_one_cell_17/D
+ sky130_rom_krom_rom_base_one_cell_25/D gnd sky130_rom_krom_rom_base_one_cell
Xsky130_rom_krom_rom_base_one_cell_28 wl_0_0 sky130_rom_krom_rom_base_one_cell_28/D
+ bl_0_3 gnd sky130_rom_krom_rom_base_one_cell
Xsky130_rom_krom_rom_base_one_cell_27 wl_0_1 sky130_rom_krom_rom_base_one_cell_27/D
+ bl_0_4 gnd sky130_rom_krom_rom_base_one_cell
Xsky130_rom_krom_rom_base_one_cell_5 precharge gnd sky130_rom_krom_rom_base_one_cell_5/S
+ gnd sky130_rom_krom_rom_base_one_cell
Xsky130_rom_krom_rom_base_zero_cell_4 wl_0_4 sky130_rom_krom_rom_base_one_cell_8/S
+ gnd sky130_rom_krom_rom_base_zero_cell
Xsky130_rom_krom_rom_base_one_cell_18 wl_0_3 sky130_rom_krom_rom_base_zero_cell_6/S
+ sky130_rom_krom_rom_base_one_cell_28/D gnd sky130_rom_krom_rom_base_one_cell
Xsky130_rom_krom_rom_base_one_cell_29 wl_0_0 sky130_rom_krom_rom_base_one_cell_29/D
+ bl_0_2 gnd sky130_rom_krom_rom_base_one_cell
Xsky130_rom_krom_rom_base_one_cell_7 precharge gnd sky130_rom_krom_rom_base_one_cell_7/S
+ gnd sky130_rom_krom_rom_base_one_cell
Xsky130_rom_krom_rom_base_one_cell_6 precharge gnd sky130_rom_krom_rom_base_one_cell_6/S
+ gnd sky130_rom_krom_rom_base_one_cell
Xsky130_rom_krom_rom_base_zero_cell_5 wl_0_4 sky130_rom_krom_rom_base_one_cell_9/S
+ gnd sky130_rom_krom_rom_base_zero_cell
Xsky130_rom_krom_rom_base_one_cell_19 wl_0_3 sky130_rom_krom_rom_base_one_cell_19/D
+ sky130_rom_krom_rom_base_one_cell_29/D gnd sky130_rom_krom_rom_base_one_cell
Xsky130_rom_krom_rom_base_one_cell_8 wl_0_5 sky130_rom_krom_rom_base_one_cell_8/D
+ sky130_rom_krom_rom_base_one_cell_8/S gnd sky130_rom_krom_rom_base_one_cell
Xsky130_rom_krom_rom_base_zero_cell_6 wl_0_4 sky130_rom_krom_rom_base_zero_cell_6/S
+ gnd sky130_rom_krom_rom_base_zero_cell
Xsky130_rom_krom_rom_base_one_cell_9 wl_0_5 sky130_rom_krom_rom_base_one_cell_9/D
+ sky130_rom_krom_rom_base_one_cell_9/S gnd sky130_rom_krom_rom_base_one_cell
Xsky130_rom_krom_rom_base_zero_cell_7 wl_0_4 sky130_rom_krom_rom_base_zero_cell_7/S
+ gnd sky130_rom_krom_rom_base_zero_cell
Xsky130_rom_krom_rom_base_zero_cell_20 wl_0_0 bl_0_7 gnd sky130_rom_krom_rom_base_zero_cell
Xsky130_rom_krom_rom_base_zero_cell_8 wl_0_3 sky130_rom_krom_rom_base_one_cell_9/S
+ gnd sky130_rom_krom_rom_base_zero_cell
Xsky130_rom_krom_rom_base_zero_cell_10 wl_0_3 sky130_rom_krom_rom_base_zero_cell_7/S
+ gnd sky130_rom_krom_rom_base_zero_cell
Xsky130_rom_krom_rom_base_zero_cell_21 wl_0_0 bl_0_6 gnd sky130_rom_krom_rom_base_zero_cell
Xsky130_rom_krom_rom_base_zero_cell_9 wl_0_3 sky130_rom_krom_rom_base_zero_cell_9/S
+ gnd sky130_rom_krom_rom_base_zero_cell
Xsky130_rom_krom_rom_base_zero_cell_11 wl_0_3 sky130_rom_krom_rom_base_one_cell_23/D
+ gnd sky130_rom_krom_rom_base_zero_cell
Xsky130_rom_krom_rom_base_zero_cell_22 wl_0_0 bl_0_5 gnd sky130_rom_krom_rom_base_zero_cell
Xsky130_rom_krom_rom_base_zero_cell_12 wl_0_2 sky130_rom_krom_rom_base_one_cell_24/D
+ gnd sky130_rom_krom_rom_base_zero_cell
Xsky130_rom_krom_rom_base_zero_cell_23 wl_0_0 bl_0_4 gnd sky130_rom_krom_rom_base_zero_cell
Xsky130_rom_krom_rom_base_zero_cell_13 wl_0_2 sky130_rom_krom_rom_base_one_cell_25/D
+ gnd sky130_rom_krom_rom_base_zero_cell
Xsky130_rom_krom_rom_base_zero_cell_14 wl_0_2 sky130_rom_krom_rom_base_one_cell_28/D
+ gnd sky130_rom_krom_rom_base_zero_cell
Xsky130_rom_krom_rom_base_zero_cell_15 wl_0_2 sky130_rom_krom_rom_base_one_cell_29/D
+ gnd sky130_rom_krom_rom_base_zero_cell
Xsky130_rom_krom_rom_base_zero_cell_16 wl_0_1 sky130_rom_krom_rom_base_one_cell_28/D
+ gnd sky130_rom_krom_rom_base_zero_cell
Xsky130_rom_krom_rom_base_zero_cell_17 wl_0_1 sky130_rom_krom_rom_base_one_cell_29/D
+ gnd sky130_rom_krom_rom_base_zero_cell
Xsky130_rom_krom_rom_base_zero_cell_18 wl_0_1 sky130_rom_krom_rom_base_one_cell_30/D
+ gnd sky130_rom_krom_rom_base_zero_cell
Xsky130_rom_krom_rom_base_zero_cell_19 wl_0_1 sky130_rom_krom_rom_base_one_cell_31/D
+ gnd sky130_rom_krom_rom_base_zero_cell
.ends

.subckt sky130_rom_krom_inv_array_mod A Z vdd gnd w_504_0#
X0 vdd A Z w_504_0# sky130_fd_pr__pfet_01v8 ad=0.9p pd=6.6u as=0.9p ps=6.6u w=3u l=0.15u
X1 gnd A Z gnd sky130_fd_pr__nfet_01v8 ad=0.222p pd=2.08u as=0.222p ps=2.08u w=0.74u l=0.15u
.ends

.subckt sky130_fd_bd_sram__openram_sp_nand2_dec A B Z vdd gnd
X0 vdd B Z vdd sky130_fd_pr__pfet_01v8 ad=0.336p pd=2.84u as=0.6776p ps=5.69u w=1.12u l=0.15u
X1 a_174_144# B gnd gnd sky130_fd_pr__nfet_01v8 ad=0.1554p pd=1.9u as=0.222p ps=2.08u w=0.74u l=0.15u
X2 Z A vdd vdd sky130_fd_pr__pfet_01v8 ad=0p pd=0u as=0p ps=0u w=1.12u l=0.15u
X3 Z A a_174_144# gnd sky130_fd_pr__nfet_01v8 ad=0.2701p pd=2.21u as=0p ps=0u w=0.74u l=0.15u
.ends

.subckt sky130_rom_krom_rom_address_control_buf A_in A_out Abar_out clk vdd_uq0 vdd_uq1
+ vdd gnd
Xsky130_rom_krom_inv_array_mod_0 A_in sky130_rom_krom_inv_array_mod_0/Z vdd_uq1 gnd
+ vdd_uq1 sky130_rom_krom_inv_array_mod
Xsky130_fd_bd_sram__openram_sp_nand2_dec_0 clk A_out Abar_out vdd gnd sky130_fd_bd_sram__openram_sp_nand2_dec
Xsky130_fd_bd_sram__openram_sp_nand2_dec_1 clk sky130_rom_krom_inv_array_mod_0/Z A_out
+ vdd_uq0 gnd sky130_fd_bd_sram__openram_sp_nand2_dec
.ends

.subckt sky130_rom_krom_rom_address_control_array A0_in A1_in A2_in A0_out A1_out
+ A2_out Abar0_out Abar1_out clk vdd vdd_uq0 vdd_uq1 gnd Abar2_out
Xsky130_rom_krom_rom_address_control_buf_0 A2_in A2_out Abar2_out clk vdd vdd_uq0
+ vdd_uq1 gnd sky130_rom_krom_rom_address_control_buf
Xsky130_rom_krom_rom_address_control_buf_2 A0_in A0_out Abar0_out clk vdd vdd_uq0
+ vdd_uq1 gnd sky130_rom_krom_rom_address_control_buf
Xsky130_rom_krom_rom_address_control_buf_1 A1_in A1_out Abar1_out clk vdd vdd_uq0
+ vdd_uq1 gnd sky130_rom_krom_rom_address_control_buf
.ends

.subckt sky130_rom_krom_pinv_dec_1 A Z vdd w_1756_n45# gnd
X0 vdd A Z w_1756_n45# sky130_fd_pr__pfet_01v8 ad=2.1p pd=14.6u as=2.1p ps=14.6u w=7u l=0.15u
X1 gnd A Z gnd sky130_fd_pr__nfet_01v8 ad=2.1p pd=14.6u as=2.1p ps=14.6u w=7u l=0.15u
.ends

.subckt sky130_rom_krom_pinv_dec_0 A Z vdd gnd w_956_n45#
X0 vdd A Z w_956_n45# sky130_fd_pr__pfet_01v8 ad=2.1p pd=14.6u as=2.1p ps=14.6u w=7u l=0.15u
X1 gnd A Z gnd sky130_fd_pr__nfet_01v8 ad=0.9p pd=6.6u as=0.9p ps=6.6u w=3u l=0.15u
.ends

.subckt sky130_rom_krom_pbuf_dec Z vdd vdd_uq0 gnd A sky130_rom_krom_pinv_dec_0_0/w_956_n45#
+ sky130_rom_krom_pinv_dec_1_0/w_1756_n45#
Xsky130_rom_krom_pinv_dec_1_0 sky130_rom_krom_pinv_dec_1_0/A Z vdd_uq0 sky130_rom_krom_pinv_dec_1_0/w_1756_n45#
+ gnd sky130_rom_krom_pinv_dec_1
Xsky130_rom_krom_pinv_dec_0_0 A sky130_rom_krom_pinv_dec_1_0/A vdd gnd sky130_rom_krom_pinv_dec_0_0/w_956_n45#
+ sky130_rom_krom_pinv_dec_0
.ends

.subckt sky130_rom_krom_rom_row_decode_wordline_buffer in_0 in_1 in_2 in_3 in_4 in_6
+ in_7 out_0 out_1 out_2 out_3 out_4 out_5 out_6 out_7 vdd_uq0 in_5 vdd gnd
Xsky130_rom_krom_pbuf_dec_0 out_7 vdd vdd_uq0 gnd in_7 vdd vdd_uq0 sky130_rom_krom_pbuf_dec
Xsky130_rom_krom_pbuf_dec_1 out_6 vdd vdd_uq0 gnd in_6 vdd vdd_uq0 sky130_rom_krom_pbuf_dec
Xsky130_rom_krom_pbuf_dec_2 out_5 vdd vdd_uq0 gnd in_5 vdd vdd_uq0 sky130_rom_krom_pbuf_dec
Xsky130_rom_krom_pbuf_dec_3 out_4 vdd vdd_uq0 gnd in_4 vdd vdd_uq0 sky130_rom_krom_pbuf_dec
Xsky130_rom_krom_pbuf_dec_5 out_2 vdd vdd_uq0 gnd in_2 vdd vdd_uq0 sky130_rom_krom_pbuf_dec
Xsky130_rom_krom_pbuf_dec_4 out_3 vdd vdd_uq0 gnd in_3 vdd vdd_uq0 sky130_rom_krom_pbuf_dec
Xsky130_rom_krom_pbuf_dec_6 out_1 vdd vdd_uq0 gnd in_1 vdd vdd_uq0 sky130_rom_krom_pbuf_dec
Xsky130_rom_krom_pbuf_dec_7 out_0 vdd vdd_uq0 gnd in_0 vdd vdd_uq0 sky130_rom_krom_pbuf_dec
.ends

.subckt sky130_rom_krom_rom_row_decode A0 A1 A2 wl_0 wl_1 wl_2 wl_3 wl_4 wl_5 wl_6
+ wl_7 clk vdd_uq0 vdd_uq2 vdd_uq5 vdd_uq6 vdd precharge vdd_uq1 gnd
Xsky130_rom_krom_rom_row_decode_array_0 sky130_rom_krom_rom_row_decode_array_0/bl_0_0
+ sky130_rom_krom_rom_row_decode_array_0/bl_0_1 sky130_rom_krom_rom_row_decode_array_0/bl_0_2
+ sky130_rom_krom_rom_row_decode_array_0/bl_0_3 sky130_rom_krom_rom_row_decode_array_0/bl_0_4
+ sky130_rom_krom_rom_row_decode_array_0/bl_0_5 sky130_rom_krom_rom_row_decode_array_0/bl_0_6
+ sky130_rom_krom_rom_row_decode_array_0/bl_0_7 sky130_rom_krom_rom_row_decode_array_0/wl_0_1
+ sky130_rom_krom_rom_row_decode_array_0/wl_0_2 sky130_rom_krom_rom_row_decode_array_0/wl_0_3
+ sky130_rom_krom_rom_row_decode_array_0/wl_0_4 sky130_rom_krom_rom_row_decode_array_0/wl_0_5
+ gnd sky130_rom_krom_rom_row_decode_array_0/wl_0_0 vdd_uq0 precharge sky130_rom_krom_rom_row_decode_array
Xsky130_rom_krom_rom_address_control_array_0 A0 A1 A2 sky130_rom_krom_rom_row_decode_array_0/wl_0_5
+ sky130_rom_krom_rom_row_decode_array_0/wl_0_3 sky130_rom_krom_rom_row_decode_array_0/wl_0_1
+ sky130_rom_krom_rom_row_decode_array_0/wl_0_4 sky130_rom_krom_rom_row_decode_array_0/wl_0_2
+ clk vdd_uq1 vdd vdd_uq2 gnd sky130_rom_krom_rom_row_decode_array_0/wl_0_0 sky130_rom_krom_rom_address_control_array
Xsky130_rom_krom_rom_row_decode_wordline_buffer_0 sky130_rom_krom_rom_row_decode_array_0/bl_0_0
+ sky130_rom_krom_rom_row_decode_array_0/bl_0_1 sky130_rom_krom_rom_row_decode_array_0/bl_0_2
+ sky130_rom_krom_rom_row_decode_array_0/bl_0_3 sky130_rom_krom_rom_row_decode_array_0/bl_0_4
+ sky130_rom_krom_rom_row_decode_array_0/bl_0_6 sky130_rom_krom_rom_row_decode_array_0/bl_0_7
+ wl_0 wl_1 wl_2 wl_3 wl_4 wl_5 wl_6 wl_7 vdd_uq5 sky130_rom_krom_rom_row_decode_array_0/bl_0_5
+ vdd_uq6 gnd sky130_rom_krom_rom_row_decode_wordline_buffer
.ends

.subckt sky130_rom_krom_pinv_dec_4 A Z vdd gnd w_692_n45#
X0 vdd A Z w_692_n45# sky130_fd_pr__pfet_01v8 ad=1.5p pd=10.6u as=1.5p ps=10.6u w=5u l=0.15u
X1 gnd A Z gnd sky130_fd_pr__nfet_01v8 ad=0.504p pd=3.96u as=0.504p ps=3.96u w=1.68u l=0.15u
.ends

.subckt sky130_rom_krom_rom_output_buffer in_0 in_1 in_2 in_3 in_4 in_5 in_6 in_7
+ in_8 in_9 in_10 in_11 in_12 in_13 in_14 in_15 in_16 in_17 in_18 in_19 in_20 in_21
+ in_22 in_23 in_24 in_25 in_26 in_27 in_28 in_29 in_30 in_31 out_0 out_1 out_2 out_3
+ out_4 out_5 out_6 out_7 out_8 out_9 out_10 out_11 out_12 out_13 out_14 out_15 out_16
+ out_17 out_18 out_19 out_20 out_21 out_22 out_23 out_24 out_25 out_26 out_27 out_28
+ out_29 out_30 out_31 gnd vdd
Xsky130_rom_krom_pinv_dec_4_20 in_11 out_11 vdd gnd vdd sky130_rom_krom_pinv_dec_4
Xsky130_rom_krom_pinv_dec_4_31 in_0 out_0 vdd gnd vdd sky130_rom_krom_pinv_dec_4
Xsky130_rom_krom_pinv_dec_4_10 in_21 out_21 vdd gnd vdd sky130_rom_krom_pinv_dec_4
Xsky130_rom_krom_pinv_dec_4_21 in_10 out_10 vdd gnd vdd sky130_rom_krom_pinv_dec_4
Xsky130_rom_krom_pinv_dec_4_11 in_20 out_20 vdd gnd vdd sky130_rom_krom_pinv_dec_4
Xsky130_rom_krom_pinv_dec_4_12 in_19 out_19 vdd gnd vdd sky130_rom_krom_pinv_dec_4
Xsky130_rom_krom_pinv_dec_4_22 in_9 out_9 vdd gnd vdd sky130_rom_krom_pinv_dec_4
Xsky130_rom_krom_pinv_dec_4_23 in_8 out_8 vdd gnd vdd sky130_rom_krom_pinv_dec_4
Xsky130_rom_krom_pinv_dec_4_13 in_18 out_18 vdd gnd vdd sky130_rom_krom_pinv_dec_4
Xsky130_rom_krom_pinv_dec_4_24 in_7 out_7 vdd gnd vdd sky130_rom_krom_pinv_dec_4
Xsky130_rom_krom_pinv_dec_4_14 in_17 out_17 vdd gnd vdd sky130_rom_krom_pinv_dec_4
Xsky130_rom_krom_pinv_dec_4_25 in_6 out_6 vdd gnd vdd sky130_rom_krom_pinv_dec_4
Xsky130_rom_krom_pinv_dec_4_15 in_16 out_16 vdd gnd vdd sky130_rom_krom_pinv_dec_4
Xsky130_rom_krom_pinv_dec_4_26 in_5 out_5 vdd gnd vdd sky130_rom_krom_pinv_dec_4
Xsky130_rom_krom_pinv_dec_4_16 in_15 out_15 vdd gnd vdd sky130_rom_krom_pinv_dec_4
Xsky130_rom_krom_pinv_dec_4_27 in_4 out_4 vdd gnd vdd sky130_rom_krom_pinv_dec_4
Xsky130_rom_krom_pinv_dec_4_17 in_14 out_14 vdd gnd vdd sky130_rom_krom_pinv_dec_4
Xsky130_rom_krom_pinv_dec_4_28 in_3 out_3 vdd gnd vdd sky130_rom_krom_pinv_dec_4
Xsky130_rom_krom_pinv_dec_4_18 in_13 out_13 vdd gnd vdd sky130_rom_krom_pinv_dec_4
Xsky130_rom_krom_pinv_dec_4_29 in_2 out_2 vdd gnd vdd sky130_rom_krom_pinv_dec_4
Xsky130_rom_krom_pinv_dec_4_19 in_12 out_12 vdd gnd vdd sky130_rom_krom_pinv_dec_4
Xsky130_rom_krom_pinv_dec_4_0 in_31 out_31 vdd gnd vdd sky130_rom_krom_pinv_dec_4
Xsky130_rom_krom_pinv_dec_4_1 in_30 out_30 vdd gnd vdd sky130_rom_krom_pinv_dec_4
Xsky130_rom_krom_pinv_dec_4_2 in_29 out_29 vdd gnd vdd sky130_rom_krom_pinv_dec_4
Xsky130_rom_krom_pinv_dec_4_3 in_28 out_28 vdd gnd vdd sky130_rom_krom_pinv_dec_4
Xsky130_rom_krom_pinv_dec_4_4 in_27 out_27 vdd gnd vdd sky130_rom_krom_pinv_dec_4
Xsky130_rom_krom_pinv_dec_4_5 in_26 out_26 vdd gnd vdd sky130_rom_krom_pinv_dec_4
Xsky130_rom_krom_pinv_dec_4_6 in_25 out_25 vdd gnd vdd sky130_rom_krom_pinv_dec_4
Xsky130_rom_krom_pinv_dec_4_7 in_24 out_24 vdd gnd vdd sky130_rom_krom_pinv_dec_4
Xsky130_rom_krom_pinv_dec_4_8 in_23 out_23 vdd gnd vdd sky130_rom_krom_pinv_dec_4
Xsky130_rom_krom_pinv_dec_4_9 in_22 out_22 vdd gnd vdd sky130_rom_krom_pinv_dec_4
Xsky130_rom_krom_pinv_dec_4_30 in_1 out_1 vdd gnd vdd sky130_rom_krom_pinv_dec_4
.ends

.subckt sky130_rom_krom_pinv_0 A Z vdd gnd
X0 Z A gnd gnd sky130_fd_pr__nfet_01v8 ad=0.2886p pd=2.26u as=0.444p ps=4.16u w=0.74u l=0.15u
X1 gnd A Z gnd sky130_fd_pr__nfet_01v8 ad=0p pd=0u as=0p ps=0u w=0.74u l=0.15u
X2 vdd A Z vdd sky130_fd_pr__pfet_01v8 ad=0.756p pd=6.24u as=0.4914p ps=3.3u w=1.26u l=0.15u
X3 Z A vdd vdd sky130_fd_pr__pfet_01v8 ad=0p pd=0u as=0p ps=0u w=1.26u l=0.15u
.ends

.subckt sky130_rom_krom_pinv_1 A Z vdd gnd
X0 Z A gnd gnd sky130_fd_pr__nfet_01v8 ad=2.07p pd=13.38u as=2.07p ps=13.38u w=3u l=0.15u
X1 Z A gnd gnd sky130_fd_pr__nfet_01v8 ad=0p pd=0u as=0p ps=0u w=3u l=0.15u
X2 gnd A Z gnd sky130_fd_pr__nfet_01v8 ad=0p pd=0u as=0p ps=0u w=3u l=0.15u
X3 Z A vdd vdd sky130_fd_pr__pfet_01v8 ad=2.07p pd=13.38u as=2.07p ps=13.38u w=3u l=0.15u
X4 vdd A Z vdd sky130_fd_pr__pfet_01v8 ad=0p pd=0u as=0p ps=0u w=3u l=0.15u
X5 Z A vdd vdd sky130_fd_pr__pfet_01v8 ad=0p pd=0u as=0p ps=0u w=3u l=0.15u
.ends

.subckt sky130_rom_krom_pinv A Z vdd gnd
X0 Z A gnd gnd sky130_fd_pr__nfet_01v8 ad=0.108p pd=1.32u as=0.108p ps=1.32u w=0.36u l=0.15u
X1 Z A vdd vdd sky130_fd_pr__pfet_01v8 ad=0.336p pd=2.84u as=0.336p ps=2.84u w=1.12u l=0.15u
.ends

.subckt sky130_rom_krom_rom_clock_driver A Z vdd gnd
Xsky130_rom_krom_pinv_0_0 sky130_rom_krom_pinv_0/Z sky130_rom_krom_pinv_1_0/A vdd
+ gnd sky130_rom_krom_pinv_0
Xsky130_rom_krom_pinv_1_0 sky130_rom_krom_pinv_1_0/A Z vdd gnd sky130_rom_krom_pinv_1
Xsky130_rom_krom_pinv_0 sky130_rom_krom_pinv_1/Z sky130_rom_krom_pinv_0/Z vdd gnd
+ sky130_rom_krom_pinv
Xsky130_rom_krom_pinv_1 A sky130_rom_krom_pinv_1/Z vdd gnd sky130_rom_krom_pinv
.ends

.subckt sky130_rom_krom_rom_control_nand A B Z vdd gnd w_n36_1262#
X0 a_144_51# A gnd gnd sky130_fd_pr__nfet_01v8 ad=0.259p pd=2.18u as=0.222p ps=2.08u w=0.74u l=0.15u
X1 vdd B Z w_n36_1262# sky130_fd_pr__pfet_01v8 ad=0.672p pd=5.68u as=0.392p ps=2.94u w=1.12u l=0.15u
X2 Z A vdd w_n36_1262# sky130_fd_pr__pfet_01v8 ad=0p pd=0u as=0p ps=0u w=1.12u l=0.15u
X3 Z B a_144_51# gnd sky130_fd_pr__nfet_01v8 ad=0.222p pd=2.08u as=0p ps=0u w=0.74u l=0.15u
.ends

.subckt sky130_rom_krom_pinv_4 A Z vdd gnd
X0 Z A gnd gnd sky130_fd_pr__nfet_01v8 ad=4.41p pd=26.94u as=4.41p ps=26.94u w=3u l=0.15u
X1 Z A gnd gnd sky130_fd_pr__nfet_01v8 ad=0p pd=0u as=0p ps=0u w=3u l=0.15u
X2 gnd A Z gnd sky130_fd_pr__nfet_01v8 ad=0p pd=0u as=0p ps=0u w=3u l=0.15u
X3 vdd A Z vdd sky130_fd_pr__pfet_01v8 ad=7.35p pd=42.94u as=7.35p ps=42.94u w=5u l=0.15u
X4 Z A vdd vdd sky130_fd_pr__pfet_01v8 ad=0p pd=0u as=0p ps=0u w=5u l=0.15u
X5 Z A vdd vdd sky130_fd_pr__pfet_01v8 ad=0p pd=0u as=0p ps=0u w=5u l=0.15u
X6 vdd A Z vdd sky130_fd_pr__pfet_01v8 ad=0p pd=0u as=0p ps=0u w=5u l=0.15u
X7 gnd A Z gnd sky130_fd_pr__nfet_01v8 ad=0p pd=0u as=0p ps=0u w=3u l=0.15u
X8 Z A gnd gnd sky130_fd_pr__nfet_01v8 ad=0p pd=0u as=0p ps=0u w=3u l=0.15u
X9 gnd A Z gnd sky130_fd_pr__nfet_01v8 ad=0p pd=0u as=0p ps=0u w=3u l=0.15u
X10 Z A gnd gnd sky130_fd_pr__nfet_01v8 ad=0p pd=0u as=0p ps=0u w=3u l=0.15u
X11 Z A vdd vdd sky130_fd_pr__pfet_01v8 ad=0p pd=0u as=0p ps=0u w=5u l=0.15u
X12 vdd A Z vdd sky130_fd_pr__pfet_01v8 ad=0p pd=0u as=0p ps=0u w=5u l=0.15u
X13 Z A vdd vdd sky130_fd_pr__pfet_01v8 ad=0p pd=0u as=0p ps=0u w=5u l=0.15u
.ends

.subckt sky130_rom_krom_pinv_2 A Z vdd gnd
X0 vdd A Z vdd sky130_fd_pr__pfet_01v8 ad=1.2p pd=9.2u as=0.78p ps=4.78u w=2u l=0.15u
X1 Z A vdd vdd sky130_fd_pr__pfet_01v8 ad=0p pd=0u as=0p ps=0u w=2u l=0.15u
X2 Z A gnd gnd sky130_fd_pr__nfet_01v8 ad=0.4914p pd=3.3u as=0.756p ps=6.24u w=1.26u l=0.15u
X3 gnd A Z gnd sky130_fd_pr__nfet_01v8 ad=0p pd=0u as=0p ps=0u w=1.26u l=0.15u
.ends

.subckt sky130_rom_krom_pinv_5 A Z vdd gnd
X0 Z A vdd vdd sky130_fd_pr__pfet_01v8 ad=19.5p pd=107.8u as=20.55p ps=118.22u w=5u l=0.15u
X1 vdd A Z vdd sky130_fd_pr__pfet_01v8 ad=0p pd=0u as=0p ps=0u w=5u l=0.15u
X2 gnd A Z gnd sky130_fd_pr__nfet_01v8 ad=20.55p pd=118.22u as=19.5p ps=107.8u w=5u l=0.15u
X3 Z A gnd gnd sky130_fd_pr__nfet_01v8 ad=0p pd=0u as=0p ps=0u w=5u l=0.15u
X4 Z A gnd gnd sky130_fd_pr__nfet_01v8 ad=0p pd=0u as=0p ps=0u w=5u l=0.15u
X5 Z A vdd vdd sky130_fd_pr__pfet_01v8 ad=0p pd=0u as=0p ps=0u w=5u l=0.15u
X6 Z A gnd gnd sky130_fd_pr__nfet_01v8 ad=0p pd=0u as=0p ps=0u w=5u l=0.15u
X7 Z A gnd gnd sky130_fd_pr__nfet_01v8 ad=0p pd=0u as=0p ps=0u w=5u l=0.15u
X8 gnd A Z gnd sky130_fd_pr__nfet_01v8 ad=0p pd=0u as=0p ps=0u w=5u l=0.15u
X9 vdd A Z vdd sky130_fd_pr__pfet_01v8 ad=0p pd=0u as=0p ps=0u w=5u l=0.15u
X10 Z A vdd vdd sky130_fd_pr__pfet_01v8 ad=0p pd=0u as=0p ps=0u w=5u l=0.15u
X11 vdd A Z vdd sky130_fd_pr__pfet_01v8 ad=0p pd=0u as=0p ps=0u w=5u l=0.15u
X12 vdd A Z vdd sky130_fd_pr__pfet_01v8 ad=0p pd=0u as=0p ps=0u w=5u l=0.15u
X13 Z A vdd vdd sky130_fd_pr__pfet_01v8 ad=0p pd=0u as=0p ps=0u w=5u l=0.15u
X14 gnd A Z gnd sky130_fd_pr__nfet_01v8 ad=0p pd=0u as=0p ps=0u w=5u l=0.15u
X15 Z A gnd gnd sky130_fd_pr__nfet_01v8 ad=0p pd=0u as=0p ps=0u w=5u l=0.15u
X16 gnd A Z gnd sky130_fd_pr__nfet_01v8 ad=0p pd=0u as=0p ps=0u w=5u l=0.15u
X17 Z A gnd gnd sky130_fd_pr__nfet_01v8 ad=0p pd=0u as=0p ps=0u w=5u l=0.15u
X18 gnd A Z gnd sky130_fd_pr__nfet_01v8 ad=0p pd=0u as=0p ps=0u w=5u l=0.15u
X19 Z A vdd vdd sky130_fd_pr__pfet_01v8 ad=0p pd=0u as=0p ps=0u w=5u l=0.15u
X20 vdd A Z vdd sky130_fd_pr__pfet_01v8 ad=0p pd=0u as=0p ps=0u w=5u l=0.15u
X21 vdd A Z vdd sky130_fd_pr__pfet_01v8 ad=0p pd=0u as=0p ps=0u w=5u l=0.15u
X22 vdd A Z vdd sky130_fd_pr__pfet_01v8 ad=0p pd=0u as=0p ps=0u w=5u l=0.15u
X23 Z A vdd vdd sky130_fd_pr__pfet_01v8 ad=0p pd=0u as=0p ps=0u w=5u l=0.15u
X24 Z A vdd vdd sky130_fd_pr__pfet_01v8 ad=0p pd=0u as=0p ps=0u w=5u l=0.15u
X25 vdd A Z vdd sky130_fd_pr__pfet_01v8 ad=0p pd=0u as=0p ps=0u w=5u l=0.15u
X26 gnd A Z gnd sky130_fd_pr__nfet_01v8 ad=0p pd=0u as=0p ps=0u w=5u l=0.15u
X27 gnd A Z gnd sky130_fd_pr__nfet_01v8 ad=0p pd=0u as=0p ps=0u w=5u l=0.15u
X28 Z A gnd gnd sky130_fd_pr__nfet_01v8 ad=0p pd=0u as=0p ps=0u w=5u l=0.15u
X29 gnd A Z gnd sky130_fd_pr__nfet_01v8 ad=0p pd=0u as=0p ps=0u w=5u l=0.15u
X30 Z A gnd gnd sky130_fd_pr__nfet_01v8 ad=0p pd=0u as=0p ps=0u w=5u l=0.15u
X31 Z A vdd vdd sky130_fd_pr__pfet_01v8 ad=0p pd=0u as=0p ps=0u w=5u l=0.15u
X32 vdd A Z vdd sky130_fd_pr__pfet_01v8 ad=0p pd=0u as=0p ps=0u w=5u l=0.15u
X33 Z A vdd vdd sky130_fd_pr__pfet_01v8 ad=0p pd=0u as=0p ps=0u w=5u l=0.15u
X34 vdd A Z vdd sky130_fd_pr__pfet_01v8 ad=0p pd=0u as=0p ps=0u w=5u l=0.15u
X35 Z A vdd vdd sky130_fd_pr__pfet_01v8 ad=0p pd=0u as=0p ps=0u w=5u l=0.15u
X36 gnd A Z gnd sky130_fd_pr__nfet_01v8 ad=0p pd=0u as=0p ps=0u w=5u l=0.15u
X37 Z A gnd gnd sky130_fd_pr__nfet_01v8 ad=0p pd=0u as=0p ps=0u w=5u l=0.15u
X38 Z A gnd gnd sky130_fd_pr__nfet_01v8 ad=0p pd=0u as=0p ps=0u w=5u l=0.15u
X39 gnd A Z gnd sky130_fd_pr__nfet_01v8 ad=0p pd=0u as=0p ps=0u w=5u l=0.15u
.ends

.subckt sky130_rom_krom_pinv_3 A Z vdd gnd
X0 Z A gnd gnd sky130_fd_pr__nfet_01v8 ad=1.56p pd=9.56u as=1.98p ps=13.98u w=2u l=0.15u
X1 Z A gnd gnd sky130_fd_pr__nfet_01v8 ad=0p pd=0u as=0p ps=0u w=2u l=0.15u
X2 gnd A Z gnd sky130_fd_pr__nfet_01v8 ad=0p pd=0u as=0p ps=0u w=2u l=0.15u
X3 vdd A Z vdd sky130_fd_pr__pfet_01v8 ad=2.97p pd=19.98u as=2.34p ps=13.56u w=3u l=0.15u
X4 Z A vdd vdd sky130_fd_pr__pfet_01v8 ad=0p pd=0u as=0p ps=0u w=3u l=0.15u
X5 vdd A Z vdd sky130_fd_pr__pfet_01v8 ad=0p pd=0u as=0p ps=0u w=3u l=0.15u
X6 Z A vdd vdd sky130_fd_pr__pfet_01v8 ad=0p pd=0u as=0p ps=0u w=3u l=0.15u
X7 gnd A Z gnd sky130_fd_pr__nfet_01v8 ad=0p pd=0u as=0p ps=0u w=2u l=0.15u
.ends

.subckt sky130_rom_krom_rom_precharge_driver A Z vdd gnd
Xsky130_rom_krom_pinv_4_0 sky130_rom_krom_pinv_4_0/A sky130_rom_krom_pinv_5_0/A vdd
+ gnd sky130_rom_krom_pinv_4
Xsky130_rom_krom_pinv_2_0 sky130_rom_krom_pinv_0/Z sky130_rom_krom_pinv_3_0/A vdd
+ gnd sky130_rom_krom_pinv_2
Xsky130_rom_krom_pinv_5_0 sky130_rom_krom_pinv_5_0/A Z vdd gnd sky130_rom_krom_pinv_5
Xsky130_rom_krom_pinv_3_0 sky130_rom_krom_pinv_3_0/A sky130_rom_krom_pinv_4_0/A vdd
+ gnd sky130_rom_krom_pinv_3
Xsky130_rom_krom_pinv_0 sky130_rom_krom_pinv_1/Z sky130_rom_krom_pinv_0/Z vdd gnd
+ sky130_rom_krom_pinv
Xsky130_rom_krom_pinv_1 sky130_rom_krom_pinv_2/Z sky130_rom_krom_pinv_1/Z vdd gnd
+ sky130_rom_krom_pinv
Xsky130_rom_krom_pinv_2 A sky130_rom_krom_pinv_2/Z vdd gnd sky130_rom_krom_pinv
.ends

.subckt sky130_rom_krom_rom_control_logic clk_in CS prechrg clk_out vdd gnd
Xsky130_rom_krom_rom_clock_driver_0 clk_in clk_out vdd gnd sky130_rom_krom_rom_clock_driver
Xsky130_rom_krom_rom_control_nand_0 CS clk_out sky130_rom_krom_rom_control_nand_0/Z
+ vdd gnd vdd sky130_rom_krom_rom_control_nand
Xsky130_rom_krom_rom_precharge_driver_0 sky130_rom_krom_rom_control_nand_0/Z prechrg
+ vdd gnd sky130_rom_krom_rom_precharge_driver
.ends

.subckt sky130_rom_krom_rom_column_mux bl bl_out sel gnd
X0 bl_out sel bl gnd sky130_fd_pr__nfet_01v8 ad=0.864p pd=6.36u as=0.864p ps=6.36u w=2.88u l=0.15u
.ends

.subckt sky130_rom_krom_rom_column_mux_array bl_0 bl_1 bl_3 bl_4 bl_6 bl_8 bl_9 bl_11
+ bl_15 bl_16 bl_17 bl_18 bl_19 bl_26 bl_27 bl_28 bl_29 bl_30 bl_37 bl_38 bl_39 bl_41
+ bl_48 bl_49 bl_59 bl_71 bl_74 bl_76 bl_79 bl_82 bl_85 bl_87 bl_90 bl_93 bl_98 bl_100
+ bl_101 bl_102 bl_104 bl_105 bl_106 bl_107 bl_109 bl_110 bl_112 bl_113 bl_115 bl_117
+ bl_118 bl_120 bl_121 bl_123 bl_124 bl_126 bl_128 bl_129 bl_130 bl_131 bl_132 bl_134
+ bl_135 bl_136 bl_137 bl_139 bl_140 bl_141 bl_142 bl_143 bl_145 bl_147 bl_148 bl_150
+ bl_151 bl_153 bl_154 bl_157 bl_158 bl_160 bl_161 bl_163 bl_164 bl_166 bl_168 bl_169
+ bl_170 bl_171 bl_172 bl_174 bl_175 bl_176 bl_177 bl_179 bl_182 bl_183 bl_184 bl_185
+ bl_187 bl_188 bl_189 bl_192 bl_193 bl_194 bl_195 bl_196 bl_197 bl_198 bl_199 bl_200
+ bl_203 bl_208 bl_211 bl_214 bl_216 bl_219 bl_222 bl_225 bl_227 bl_230 bl_233 bl_238
+ bl_241 bl_244 bl_248 bl_251 bl_254 sel_4 sel_5 bl_out_0 bl_out_1 bl_out_2 bl_out_3
+ bl_out_4 bl_out_5 bl_out_6 bl_out_7 bl_out_8 bl_out_9 bl_out_10 bl_out_11 bl_out_12
+ bl_out_13 bl_out_14 bl_out_15 bl_out_16 bl_out_17 bl_out_18 bl_out_19 bl_out_20
+ bl_out_21 bl_out_22 bl_out_23 bl_out_24 bl_out_25 bl_out_26 bl_out_27 bl_out_28
+ bl_out_29 bl_out_30 bl_out_31 gnd bl_14 bl_22 bl_25 bl_33 bl_46 bl_44 bl_52 bl_55
+ bl_58 bl_66 bl_61 bl_69 bl_64 bl_190 bl_77 bl_72 bl_80 bl_206 bl_75 bl_201 bl_88
+ bl_83 bl_209 bl_204 bl_96 bl_91 bl_217 bl_212 bl_99 bl_94 bl_220 bl_215 bl_12 bl_246
+ bl_228 bl_223 bl_20 bl_236 bl_231 bl_249 bl_23 bl_239 bl_36 bl_252 bl_234 bl_31
+ bl_242 bl_255 bl_34 bl_245 bl_47 bl_42 bl_50 bl_45 bl_53 bl_56 bl_180 bl_67 bl_62
+ bl_70 bl_65 bl_191 bl_78 bl_73 bl_86 bl_81 bl_207 bl_202 bl_89 bl_84 bl_210 bl_7
+ bl_205 bl_97 bl_92 bl_2 bl_218 bl_213 bl_10 bl_95 bl_5 bl_226 bl_221 bl_108 bl_103
+ bl_13 bl_229 bl_247 bl_224 bl_116 bl_111 bl_21 bl_237 bl_250 bl_232 bl_119 bl_114
+ bl_24 bl_240 bl_235 bl_127 bl_253 bl_32 bl_122 bl_243 bl_40 bl_125 bl_35 bl_138
+ bl_133 bl_43 bl_146 bl_51 bl_149 bl_144 bl_54 bl_152 bl_156 bl_155 bl_159 bl_167
+ bl_162 sel_0 sel_7 sel_6 bl_57 bl_165 sel_1 bl_178 bl_173 bl_60 bl_186 bl_181 bl_68
+ sel_3 bl_63 sel_2
Xsky130_rom_krom_rom_column_mux_110 bl_145 bl_out_18 sel_1 gnd sky130_rom_krom_rom_column_mux
Xsky130_rom_krom_rom_column_mux_121 bl_134 bl_out_16 sel_6 gnd sky130_rom_krom_rom_column_mux
Xsky130_rom_krom_rom_column_mux_132 bl_123 bl_out_15 sel_3 gnd sky130_rom_krom_rom_column_mux
Xsky130_rom_krom_rom_column_mux_143 bl_112 bl_out_14 sel_0 gnd sky130_rom_krom_rom_column_mux
Xsky130_rom_krom_rom_column_mux_154 bl_101 bl_out_12 sel_5 gnd sky130_rom_krom_rom_column_mux
Xsky130_rom_krom_rom_column_mux_198 bl_57 bl_out_7 sel_1 gnd sky130_rom_krom_rom_column_mux
Xsky130_rom_krom_rom_column_mux_187 bl_68 bl_out_8 sel_4 gnd sky130_rom_krom_rom_column_mux
Xsky130_rom_krom_rom_column_mux_176 bl_79 bl_out_9 sel_7 gnd sky130_rom_krom_rom_column_mux
Xsky130_rom_krom_rom_column_mux_165 bl_90 bl_out_11 sel_2 gnd sky130_rom_krom_rom_column_mux
Xsky130_rom_krom_rom_column_mux_100 bl_155 bl_out_19 sel_3 gnd sky130_rom_krom_rom_column_mux
Xsky130_rom_krom_rom_column_mux_111 bl_144 bl_out_18 sel_0 gnd sky130_rom_krom_rom_column_mux